tests/data/RJ-reduced-sys/sistema_reduzido_RJ.pwf
(( SISTEMA REDUZIDO LIGHT / AMPLA FRONTEIRAS REDE BÁSICA RIO DE JANEIRO
DBAR
(Num)OETGb(   nome   )Gl( V)( A)( Pg)( Qg)( Qn)( Qm)(Bc  )( Pl)( Ql)( Sh)Are(Vf)M(1)(2)(3)(4)(5)(6)(7)(8)(9)(10
   32 L2 VSCRU16UTE002 51001-17.-250.-50. -100.100.                        11000
  104 L  CC.PAUL-SP500 31002-23.                                           11000
  105 L  CANGRA--RJ500 31053-19.                                           11000
  106 L  CADRIAN-RJ500 31064-25.                                           11000
  107 L  CGRAJAU-RJ500 31069-25                                           401000
  108 L  CS.JOSE-RJ500 31069-25.                                           11000
  144 L1 EJACARE-RJ345 51022-27.70.  20.  -50   50                        401000
  169 L  GSJOSE2-RJ138 51002-28.                                           11000
  178 L  GGRAJAU-RJ138 5 994-26.                           98  23          11000
  180 L  GJACAR2-RJ138 51003-27.                                           11000
  181 L  GANGDEF-RJ138 5 996-26.                                           11037
  183 L1 GC.PAUL-SP138 51034-24.90 . 20.  -50  50                          11000
  184 L  GS.CRUZ-RJ138 51001-24.                                           11000
  185 L1 GANGRA--RJ138 5 998-13.79    11  -30  30            3. 1.45       11000
  250 L1 VNPECANUHE002 5 961-24.  80.18.76-31.8  90.                      401000
  251 L  GN.PECA-RJ138 5 995-29.                                          401000
  252 L  FN.PECA-RJ230 51007-27.                                          401000
  253 L1 VFONTESUHE001 5 976-24.  28. 10.6 -8.4  30.                      401000
  254 L  GFONTES-RJ138 5 995-29.                                          401000
  255 L1 VPPASSOUHE001 5 975-25.  21.10.44 -10.  35.                      401000
  256 L  GPPASSO-RJ138 5 999-29.                                          401000
  257 L1 VI.POMBUHE002 5 972-28.  38.7.823 -8.8  20.                      401000
  258 L  GI.POMB-RJ138 51010-31.                                          401000
  266 L  GS.CLAR-RJ138 51009-27.                           15.2 -2.4       91000
  268 L  GCFRTAP-RJ138 51003-29.                                           91000
  274 L  GV.RED-PCH138 5 965-32.   7.   0.                 15.4 -7.2       91000
  275 L  GCASCA2-RJ138 51005-28.                           31.4-31.7       91000
  276 L  GBRISAM-RJ138 5 994-23.                           180 50          91000
  280 L  GABRTAP-RJ138 51008-28.                           67   25         91000
  287 L  GSARAPU-RJ138 51002-28.                           23.3  5         91000
  295 L  GSEROPE-RJ138 51003-28.                           11.5 -5.6       91000
 1601 L  GSAPUCA-RJ138 51011-30.                            1.8 -3.3       91000
 1604 L  GV.TELE-RJ138 51002-28.                           13.5 -4.9       91000
 1606 L  GELDORA-RJ138 51002-29.                            6.8  3.5       91000
 1618 L  GCOLEGI-RJ138 51001-28.                           22.1  -8.       91000
 1642 L  GPIEDAD-RJ138 5 996-26.                            12. -1.7       91000
 3519 L  GNIGUA2-RJ138 51012-27.                                          411000
 3951 L  GCARMAR-RJ138 51012-27.                           12.5  -5.       91000
 3957 L  GINFLUE-RJ138 51011-31.                            2.3-11.6       91000
 3958 L  GCASCAD-RJ138 51006-28.                                           91000
 3974 L1 VELTB-GUTE000 51004-28.   0.   0.   0.   0.                      411000
 3975 L  GELETRO-RJ138 51007-28.                                          411000
 4200 L  GSJOSE1-RJ138 5 990-27.                                           11020
 4201 L  GGLB-1--RJ138 5 987-26.                                          411000
 4203 L1 VTRG111UTE001 5 968-22. 101. -18. -61. 76.8                      411000
 4210 L  GREDUC1-RJ138 5 986-27.                            15. 5         411025
 4307 L  UNIG5-B-RJ000 61011-28.                                          411000
 4325 L  GNIGUA1-RJ138 51012-27.                                          411000
 9601 L  CZ.OEST-RJ500 31048-23.                                          411000
 9605 L  CT.RIO--RJ500 81058-24.                                          431000
 9608 L  CN.IGUA-RJ500 31064-24.                                          431000
 9618 L  GPP-BL1-RJ138 51003-28.                                           91000
99999
DLIN
(De )d O d(Pa )NcEP ( R% )( X% )(Mvar)(Tap)(Tmn)(Tmx)(Phs)(Bc  )(Cn)(Ce)Ns(Cq)(1)(2)(3)(4)(5)(6)(7)(8)(9)(10
  105      9608 1 T   .101 1.518 127.8                          18552337  1855
  105      9601 1     .092 1.363 115.3                          18552337   36.
  106       108 1     .019  .389  42.1                          25982598  2598
  169       10813         2.3881       .934 .8571.048        169600.720.  250.
  169       10814         2.3499       .934 .8571.048        169600.720.  250.
  169      1604 1 T  .0851 .6291 .1904                          324.341.  172.
  178       10756         2.2288       .929                     600.720.  150.
  178       10758         2.2748       .929                     600.720.  150.
  178      1642 1 T    .24  1.34  .381                          218.264.  218.
  180       144 2         4.3218      .9869 .8961.095        180225.252.32598.
  180       144 3         4.1277      .9869 .8961.095        180225.270.32225.
  181       105 1         4.1354      .9474 .8571.048        181400.400.32 52.
  181       185 1            .98         1.          14.05      400.400.   51.
  183       10457         5.3262      .9685 .9051.048        183250.262.32100.
  183       10459         5.2283      .9685 .9051.048        183250.270.32100.
  183       274 1 T   4.33 25.18  7.26                          155.195.  270.
  183       274 2 T   4.33 25.18  7.26                          155.195.  155.
  184        32 1          3.334         1.                     420.504.  136.
  184       180 1    1.571 9.104 2.616                          194.207.  194.
  184       180 2    1.572 9.103  2.62                          194.207.  194.
  184       185 1     3.96 23.03  6.64                          200.207.  200.
  251       250 1           8.84      1.051                     405.405.  103.
  251       254 1     .006 .0246 .0264                          344.411.   87.
  251       254 2    .0038 .0254 .6938                          265.302.   87.
  251       266 1 T   1.87   7.6  2.04                          400.400.   95.
  251       274 1 T 1.8511  7.53 2.019                          172.206.  344.
  251       274 2 T 1.8511  7.53 2.019                          172.206.  105.
  251       274 4 T 1.2801  7.32 2.081                          218.264.  105.
  252       251 1           9.37      1.009  .95  1.1        252200.260.32172.
  254       253 1          30.52      1.051                     165.165.  172.
  254       295 1 T    .97  3.94 1.055                          172.206.   46.
  256       255 1          24.65      1.051                     126.126.  200.
  256      9618 1 T  .62422.5359 .6798                          172.206.  172.
  258       257 1          16.17      1.051                     200.200.  290.
  266      3519 1     .303 1.231   .33                          400.400.  172.
  268      1606 1 T  .28561.6272 .4624                          287.304.  182.
  275      1618 1    .14361.0625 .3215                          324.341.  324.
  276       184 1    .36042.0532 .5834                          218.264.  218.
  287      1604 1 T  .0315  .233 .0705                          287.304.  300.
  287      1606 1    .3612 2.058 .5848                          287.304.  287.
  295      3975 1      .48  1.97  .527                          172.206.  172.
 1601       268 1     3.28 18.74 5.324                          287.304.   56.
 1601      3957 1   1.52048.66272.4616                          287.304.  136.
 1618      4200 1    .31042.2637 .6835                          324.341.  324.
 1642      3958 1      .24  1.34  .381                          194.247.  194.
 3519      4307 1          -.329         1.                     900.1080  900.
 3951       280 1 T   .4133.0546 .9243                          269.324.   80.
 3957       258 1     .042 .2393  .068                          287.304.   20.
 3958       180 1    .5376 3.063 .8704                          218.264.  218.
 3958       275 1            .01                                99999999  9999
 3974      3975 1         3.4722         1.                     99999999   61.
 3975      9618 1 T  .62422.5359 .6798                          172.206.  172.
 4200       10811         2.3808      .8996 .8571.048       4200600.660.  103.
 4200       10812         2.4016      .8996 .8571.048       4200600.660.  103.
 4201      4200 1      .12  1.51  2.13                          99999999  9999
 4201      4203 1             8.         1.                     99999999  115.
 4201      4210 1      .13   .69  9.15                           80.100.  269.
 4325      3519 1 T         .001                                99999999  126.
 4325      3951 1 T  .0038  .028 .0085                          269.324.  172.
 9601      9608 1 T   .029  .436  36.7                          18552337  1855
 9605       106 1      .03   .41  34.1                          18552337  1855
 9605       106 2      .03   .41  34.1                          18552337  1855
 9605      9608 1      .02   .34 50.08                          24733116  2473
 9605      9608 2      .02   .34 50.08                          24733116  2473
 9608      4307 1          1.773       1.05                     900.1080  900.
99999
DBSH
(NFr) O (NTo) Nc C (Vmn (Vmx Bctrl (Qini) T A (Extr
  105    9601  1 D 0950 1100   105  -136. C     105
(G  O E (U) UOp (Sht )
10        1   1  -136.
FBAN
(NFr) O (NTo) Nc C (Vmn (Vmx Bctrl (Qini) T A (Extr
  108            D 0950 1100   108  -200. C
(G  O E (U) UOp (Sht )
10        1   1  -200.
FBAN
(NFr) O (NTo) Nc C (Vmn (Vmx Bctrl (Qini) T A (Extr
 9605     106  1 D 1000 1100  9605  -136. C     106
(G  O E (U) UOp (Sht )
10        1   1  -136.
FBAN
(NFr) O (NTo) Nc C (Vmn (Vmx Bctrl (Qini) T A (Extr
 9605     106  2 D 1000 1100  9605  -136. C     106
(G  O E (U) UOp (Sht )
10        1   1  -136.
FBAN
(NFr) O (NTo) Nc C (Vmn (Vmx Bctrl (Qini) T A (Extr
  180            D 0950 1050   180        C
(G  O E (U) UOp (Sht )
10        2   1   100.
FBAN
(NFr) O (NTo) Nc C (Vmn (Vmx Bctrl (Qini) T A (Extr
  184            D 0950 1050   184        C
(G  O E (U) UOp (Sht )
10        1   1    -60.
FBAN
(NFr) O (NTo) Nc C (Vmn (Vmx Bctrl (Qini) T A (Extr
  274            D 0950 1050   274        C
(G  O E (U) UOp (Sht )
10        1   1   67.5
FBAN
(NFr) O (NTo) Nc C (Vmn (Vmx Bctrl (Qini) T A (Extr
  276            D 0950 1050   276        C
(G  O E (U) UOp (Sht )
10        2   1  60.0
FBAN
(NFr) O (NTo) Nc C (Vmn (Vmx Bctrl (Qini) T A (Extr
 1618            D 0950 1050  1618        C
(G  O E (U) UOp (Sht )
10        1   1  60.0
FBAN
(NFr) O (NTo) Nc C (Vmn (Vmx Bctrl (Qini) T A (Extr
 9605            F 0950 1100  9605   314. C
(G  O E (U) UOp (Sht )
10        3   1   225.
20        3   1   225.
40        2   1  -136.
FBAN
(NFr) O (NTo) Nc C (Vmn (Vmx Bctrl (Qini) T A (Extr
 9608            D 1000 1100  9608  -200. C
(G  O E (U) UOp (Sht )
10        1   1  -220.
FBAN
99999
FIM
